/*--------------------------------*- C++ -*----------------------------------*\
| =========                 |                                                 |
| \\      /  F ield         | OpenFOAM: The Open Source CFD Toolbox           |
|  \\    /   O peration     | Version:  2406                                  |
|   \\  /    A nd           | Website:  www.openfoam.com                      |
|    \\/     M anipulation  |                                                 |
\*---------------------------------------------------------------------------*/
FoamFile
{
    version     2.0;
    format      ascii;
    arch        "LSB;label=32;scalar=64";
    class       volScalarField;
    location    "0/outerFluid";
    object      cellToRegion;
}
// * * * * * * * * * * * * * * * * * * * * * * * * * * * * * * * * * * * * * //

dimensions      [0 0 0 0 0 0 0];

internalField   uniform 2;

boundaryField
{
    back
    {
        type            empty;
    }
    front
    {
        type            empty;
    }
    outerFluid_inlet
    {
        type            zeroGradient;
    }
    outerFluid_top
    {
        type            zeroGradient;
    }
    outerFluid_outlet
    {
        type            zeroGradient;
    }
    outerFluid_to_wall
    {
        type            calculated;
        value           uniform 0;
    }
}


// ************************************************************************* //
