/*--------------------------------*- C++ -*----------------------------------*\
| =========                 |                                                 |
| \\      /  F ield         | OpenFOAM: The Open Source CFD Toolbox           |
|  \\    /   O peration     | Version:  2406                                  |
|   \\  /    A nd           | Website:  www.openfoam.com                      |
|    \\/     M anipulation  |                                                 |
\*---------------------------------------------------------------------------*/
FoamFile
{
    version     2.0;
    format      ascii;
    arch        "LSB;label=32;scalar=64";
    class       polyBoundaryMesh;
    location    "constant/polyMesh";
    object      boundary;
}
// * * * * * * * * * * * * * * * * * * * * * * * * * * * * * * * * * * * * * //

5
(
    back
    {
        type            empty;
        inGroups        1(empty);
        nFaces          13314;
        startFace       26200;
    }
    inlet
    {
        type            patch;
        nFaces          14;
        startFace       39514;
    }
    walls
    {
        type            wall;
        inGroups        1(wall);
        nFaces          828;
        startFace       39528;
    }
    outlet
    {
        type            patch;
        nFaces          14;
        startFace       40356;
    }
    front
    {
        type            empty;
        inGroups        1(empty);
        nFaces          13314;
        startFace       40370;
    }
)

// ************************************************************************* //
