FoamFile
{
    version     2.0;
    format      ascii;
    class       dictionary;
    location    "system/innerFluid";
    object      changeDictionaryDict;
}
// * * * * * * * * * * * * * * * * * * * * * * * * * * * * * * * * * * * * * //

T
{
    internalField   uniform 77;

    boundaryField
    {
    innerFluid_to_wall
    {
        type            compressible::turbulentTemperatureCoupledBaffleMixed;
        Tnbr            T;
        kappaMethod     fluidThermo;
        value           uniform 77;
    }
    }
}

// ************************************************************************* //
