FoamFile
{
    version     2.0;
    format      ascii;
    class       dictionary;
    object      fvSolution;
}
// * * * * * * * * * * * * * * * * * * * * * * * * * * * * * * * * * * * * * //

solvers
{
    p
    {
        solver          GAMG;
        smoother        GaussSeidel;
        nCoarsestCells  20;
        tolerance       1e-06;
        relTol          0.1;
        coarsestLevelCorr
        {
            solver          PCG;
            preconditioner  DIC;
            tolerance       1e-09;
            relTol          0;
        }
    }

    pFinal
    {
        $p;
        relTol          0;
    }

    "(U|k|omega)"
    {
        solver          smoothSolver;
        smoother        symGaussSeidel;
        tolerance       1e-05;
        relTol          0.1;
    }

    "(U|k|omega)Final"
    {
        solver          smoothSolver;
        smoother        symGaussSeidel;
        tolerance       1e-06;
        relTol          0;
    }
}

PIMPLE
{
    nOuterCorrectors    2;
    nCorrectors         1;
    nNonOrthogonalCorrectors 1;
    momentumPredictor   yes;
    consistent          yes;
    transonic           no;
    turbOnFinalIterOnly no;

    residualControl
    {
        p   { tolerance 1e-4; relTol 0; }
        U   { tolerance 1e-4; relTol 0; }
        k   { tolerance 1e-3; relTol 0; }
        omega   { tolerance 1e-3; relTol 0; }
    }
}

relaxationFactors
{
    equations
    {
        "U.*"           0.9;
        "(k|epsilon|omega).*" 0.8;
    }
}

// ************************************************************************* //
