FoamFile
{
    version     2.0;
    format      ascii;
    class       dictionary;
    object      regionProperties;
}
// * * * * * * * * * * * * * * * * * * * * * * * * * * * * * * * * * * * * * //

regions
(
    fluid       (innerFluid outerFluid)
    solid       (wall)
);

// ************************************************************************* //
