FoamFile
{
    version     2.0;
    format      ascii;
    class       dictionary;
    location    "constant/innerFluid";
    object      thermophysicalProperties;
}
// * * * * * * * * * * * * * * * * * * * * * * * * * * * * * * * * * * * * * //

thermoType
{
    type            heRhoThermo;
    mixture         pureMixture;
    transport       const;
    thermo          hConst;
    equationOfState perfectGas;
    specie          specie;
    energy          sensibleEnthalpy;
}

mixture
{
    specie
    {
        nMoles          1;
        molWeight       28.01;
    }
    thermodynamics
    {
        Cp              2042;
        Hf              0;
    }
    transport
    {
        mu              0.000158;
        Pr              2.3;
    }
}

// ************************************************************************* //
