FoamFile
{
    version     2.0;
    format      ascii;
    class       dictionary;
    location    "constant/innerFluid";
    object      turbulenceProperties;
}
// * * * * * * * * * * * * * * * * * * * * * * * * * * * * * * * * * * * * * //

simulationType  laminar;

// ************************************************************************* //
