FoamFile
{
    version     2.0;
    format      ascii;
    class       volScalarField;
    location    "0/outerFluid";
    object      p_rgh;
}
// * * * * * * * * * * * * * * * * * * * * * * * * * * * * * * * * * * * * * //

dimensions      [1 -1 -2 0 0 0 0];
internalField   uniform 100000;

boundaryField
{
    outerFluid_inlet
    {
        type            fixedFluxPressure;
        value           uniform 100000;
    }
    outerFluid_top
    {
        type            fixedFluxPressure;
        value           uniform 100000;
    }
    outerFluid_outlet
    {
        type            fixedValue;
        value           uniform 101325;
    }
    outerFluid_to_wall
    {
        type            fixedFluxPressure;
        value           uniform 100000;
    }
}

// ************************************************************************* //