FoamFile
{
    version     2.0;
    format      ascii;
    class       volScalarField;
    location    "0";
    object      omega;
}
// * * * * * * * * * * * * * * * * * * * * * * * * * * * * * * * * * * * * * //

dimensions      [0 0 -1 0 0 0 0];

internalField   uniform 10;

boundaryField
{
    hotCylinder
    {
        type            omegaWallFunction;
        value           uniform 10;
    }
    coldWalls
    {
        type            omegaWallFunction;
        value           uniform 10;
    }
    back
    {
        type            empty;
    }
    front
    {
        type            empty;
    }
}

// ************************************************************************* //