FoamFile
{
    version     2.0;
    format      ascii;
    class       volVectorField;
    object      U;
}
// * * * * * * * * * * * * * * * * * * * * * * * * * * * * * * * * * * * * * //

dimensions      [0 1 -1 0 0 0 0];

internalField   uniform (0 0 0);

boundaryField
{
    hotCylinder
    {
        type            noSlip;
    }
    coldWalls
    {
        type            noSlip;
    }
    back
    {
        type            empty;
    }
    front
    {
        type            empty;
    }
}

// ************************************************************************* //