FoamFile
{
    version     2.0;
    format      ascii;
    class       dictionary;
    object      fvSolution;
}
// * * * * * * * * * * * * * * * * * * * * * * * * * * * * * * * * * * * * * //

// Multi-region top-level fvSolution.
// Per-region solver settings live in system/<region>/fvSolution
// (rendered separately by the deterministic-files step — TODO Phase 2).

PIMPLE
{
    nOuterCorrectors    1;
    nCorrectors         1;
    nNonOrthogonalCorrectors 0;
}

// ************************************************************************* //
