/*--------------------------------*- C++ -*----------------------------------*\
| =========                 |                                                 |
| \\      /  F ield         | OpenFOAM: The Open Source CFD Toolbox           |
|  \\    /   O peration     | Version:  2406                                  |
|   \\  /    A nd           | Website:  www.openfoam.com                      |
|    \\/     M anipulation  |                                                 |
\*---------------------------------------------------------------------------*/
FoamFile
{
    version     2.0;
    format      ascii;
    arch        "LSB;label=32;scalar=64";
    class       polyBoundaryMesh;
    location    "constant/innerFluid/polyMesh";
    object      boundary;
}
// * * * * * * * * * * * * * * * * * * * * * * * * * * * * * * * * * * * * * //

6
(
    back
    {
        type            empty;
        inGroups        1(empty);
        nFaces          24000;
        startFace       46976;
    }
    innerFluid_symmetry
    {
        type            symmetry;
        inGroups        1(symmetry);
        nFaces          1000;
        startFace       70976;
    }
    innerFluid_outlet
    {
        type            patch;
        nFaces          24;
        startFace       71976;
    }
    innerFluid_inlet
    {
        type            patch;
        nFaces          24;
        startFace       72000;
    }
    front
    {
        type            empty;
        inGroups        1(empty);
        nFaces          24000;
        startFace       72024;
    }
    innerFluid_to_wall
    {
        type            mappedWall;
        inGroups        1(wall);
        nFaces          1000;
        startFace       96024;
        sampleMode      nearestPatchFace;
        sampleRegion    wall;
        samplePatch     wall_to_innerFluid;
    }
)

// ************************************************************************* //
