FoamFile
{
    version     2.0;
    format      ascii;
    class       dictionary;
    location    "constant/outerFluid";
    object      thermophysicalProperties;
}
// * * * * * * * * * * * * * * * * * * * * * * * * * * * * * * * * * * * * * //

thermoType
{
    type            heRhoThermo;
    mixture         pureMixture;
    transport       const;
    thermo          hConst;
    equationOfState perfectGas;
    specie          specie;
    energy          sensibleEnthalpy;
}

mixture
{
    specie
    {
        nMoles          1;
        molWeight       18.02;
    }
    thermodynamics
    {
        Cp              4182;
        Hf              0;
    }
    transport
    {
        mu              0.001002;
        Pr              7;
    }
}

// ************************************************************************* //
