FoamFile
{
    version     2.0;
    format      ascii;
    class       volScalarField;
    location    "0/wall";
    object      p_rgh;
}
// * * * * * * * * * * * * * * * * * * * * * * * * * * * * * * * * * * * * * //

dimensions      [1 -1 -2 0 0 0 0];
internalField   uniform 100000;

boundaryField
{
    wall_right_end
    {
        type            calculated;
        value           uniform 100000;
    }
    wall_left_end
    {
        type            calculated;
        value           uniform 100000;
    }
    wall_to_innerFluid
    {
        type            calculated;
        value           uniform 100000;
    }
    wall_to_outerFluid
    {
        type            calculated;
        value           uniform 100000;
    }
}

// ************************************************************************* //