FoamFile
{
    version     2.0;
    format      ascii;
    class       volScalarField;
    location    "0/innerFluid";
    object      p_rgh;
}
// * * * * * * * * * * * * * * * * * * * * * * * * * * * * * * * * * * * * * //

dimensions      [1 -1 -2 0 0 0 0];
internalField   uniform 100000;

boundaryField
{
    innerFluid_symmetry
    {
        type            symmetry;
    }
    innerFluid_outlet
    {
        type            fixedValue;
        value           uniform 101325;
    }
    innerFluid_inlet
    {
        type            fixedFluxPressure;
        value           uniform 100000;
    }
    innerFluid_to_wall
    {
        type            fixedFluxPressure;
        value           uniform 100000;
    }
}

// ************************************************************************* //